54
	Energy:    -177.4999754
O         -6.30494       -0.62796        1.37392
H         -5.54998       -1.22409        1.62873
H         -7.04786       -1.12588        1.76121
O         -2.61379        0.49281       -0.68209
H         -2.29125       -0.09500       -1.40796
H         -3.54703        0.16419       -0.66072
O         -2.20420       -3.13136        0.41993
H         -2.12531       -4.09572        0.29371
H         -2.66596       -2.90371       -0.43340
O         -4.62533        1.51733        1.82861
H         -4.07742        0.84859        2.30070
H         -5.41888        0.95495        1.65524
O          0.47485        2.46879       -0.63413
H         -0.30972        2.85316       -1.09813
H          1.11397        3.19968       -0.71814
O         -4.08636       -1.90207        2.11438
H         -3.47184       -1.34317        2.64522
H         -3.42870       -2.40317        1.57746
O         -5.16635       -0.47683       -1.16597
H         -5.80987       -0.44427       -0.42130
H         -5.44703        0.32097       -1.68325
O         -2.00377        2.98270       -1.64249
H         -2.24826        2.08401       -1.30021
H         -2.74462        3.47700       -1.21299
O          0.20825        0.06517       -2.16422
H          0.26292       -0.60339       -1.43663
H          0.51312        0.85440       -1.66670
O         -4.22943        3.49146       -0.19592
H         -4.53212        2.73637        0.36555
H         -3.84424        4.03610        0.53093
O         -3.42852       -2.46545       -1.82695
H         -2.99659       -1.96918       -2.56553
H         -4.21877       -1.88455       -1.70101
O         -0.05299       -1.36057        0.14308
H         -0.73633       -2.06156        0.25543
H         -0.18534       -0.85020        0.96308
O         -2.17439       -0.55051       -3.28044
H         -1.20468       -0.37419       -3.18699
H         -2.45985        0.26844       -3.74651
O         -1.03892        1.26682        1.36197
H         -0.30632        1.65002        0.81846
H         -1.61932        0.96590        0.61273
O         -2.56263        0.08101        3.24563
H         -1.88002        0.50030        2.66459
H         -2.20633        0.30062        4.12629
O         -2.87921        2.09065       -4.05588
H         -2.37324        2.56146       -3.35170
H         -2.66515        2.62777       -4.83952
O         -5.25149        1.91403       -2.37430
H         -4.57087        1.97362       -3.08025
H         -5.01816        2.68525       -1.81305
O         -2.73212        3.54481        2.11100
H         -1.99406        2.91708        1.96897
H         -3.45687        2.91865        2.32892
