54   
Iteration 49 Energy -1349.77414257
O       -5.5137270491   -0.1996448867    1.0357373413
H       -4.7422391142   -0.7542863290    1.5201415545
H       -6.3518368163   -0.5562473163    1.3986034569
O       -2.6621068577    0.4456256499   -0.9459453280
H       -2.1515857717   -0.0348869196   -1.6562700049
H       -3.6020358467    0.0540782157   -1.0558717494
O       -2.3254468432   -2.6049875257    0.3558302220
H       -2.2414797322   -3.5595566578    0.5659530321
H       -2.7378612878   -2.5858886523   -0.6238386567
O       -5.6250196785    2.1698448660    0.3107967415
H       -6.4292793767    2.5312174631    0.7438103772
H       -5.5557278356    1.2289816225    0.6844052417
O       -0.0478129920    2.0841289017   -0.8578194508
H       -0.9052918984    2.5030586048   -1.2411933827
H        0.5918769319    2.8250787408   -0.7909202832
O       -3.8168636495   -1.4854474424    2.0357517176
H       -3.1698553020   -0.9806384649    2.5967309710
H       -3.2508867049   -1.9620711699    1.3572087835
O       -4.8033141574   -0.5417995414   -1.3800519122
H       -5.2436393201   -0.5660758201   -0.4933387424
H       -5.2652270584    0.2374846767   -1.8780448868
O       -2.2681230565    2.7701123587   -1.5739904170
H       -2.5280028334    1.8210258228   -1.3504191101
H       -2.7592225045    3.3006365601   -0.8485234480
O        0.5691520204   -0.3879645938   -1.6748701907
H        0.4234289996   -0.8713159069   -0.7957379306
H        0.4843648962    0.5697369637   -1.4375748795
O       -3.5680910601    3.8030432670    0.1929720532
H       -4.3825601401    3.2423979510    0.2520571092
H       -3.0986075307    3.6137093537    1.0510117858
O       -3.2154106278   -2.4712098771   -1.8260816969
H       -2.5145887912   -1.9682022450   -2.3279331137
H       -3.9719742780   -1.8230217017   -1.7717842516
O       -0.0741448289   -1.4190728006    0.4663163920
H       -0.9175946499   -1.9554415342    0.3873268560
H       -0.3930991543   -0.6119428433    0.9299047900
O       -1.4783078594   -0.8701680809   -2.7141692976
H       -0.4992102023   -0.7053953353   -2.3495733057
H       -1.5044851182   -0.4939004286   -3.6185437467
O       -1.2817866055    0.9460854611    1.0286090364
H       -0.6045266615    1.4269217705    0.4782010581
H       -1.9395093096    0.6721970757    0.3090472477
O       -2.0154939759   -0.1512168200    3.2305987728
H       -1.5733004318    0.2869078343    2.4556931479
H       -1.2925943791   -0.6881645592    3.6256392672
O       -3.9678605472    2.8222068334   -3.3658928330
H       -3.1894453851    2.8819328634   -2.7198938984
H       -4.2182406192    3.7615978111   -3.5104219219
O       -5.7559878355    1.4643434064   -2.2618170837
H       -5.0731937508    2.0088177314   -2.7655399999
H       -5.8359660990    1.9262475539   -1.3929344172
O       -2.2777704101    2.9864523765    2.2087074793
H       -1.8687283473    2.1718440678    1.7979029145
H       -2.7930791513    2.6141117084    2.9593985124