18
	Energy:     -49.4170564
O         -5.32999       -0.78031        0.45218
H         -4.49196       -0.38016        0.77373
H         -5.65414       -0.00291       -0.06105
O         -2.85365        0.71049        0.69176
H         -2.29125        0.00367        0.27618
H         -2.29650        0.90556        1.46758
O         -5.01970        1.71711       -0.65152
H         -4.15245        1.52920       -0.22066
H         -4.82361        2.53376       -1.13796
O         -1.29298       -1.30995       -0.08032
H         -0.60170       -1.61190       -0.69543
H         -1.72200       -2.18397        0.11341
O         -5.10610       -3.43996        0.25482
H         -5.21415       -2.45601        0.33596
H         -6.04207       -3.69778        0.19699
O         -2.42630       -3.72841        0.23459
H         -3.41101       -3.62211        0.17458
H         -2.38619       -4.64683        0.55254
